<!--'alias _1'   :  'cross_junction-1-2lane-project' -->


<edges>
    <!-- Incoming roads (e.g., from North 'N' to Center 'C') -->
    <edge id="N2C" from="N" to="C" numLanes="2" />
    <edge id="S2C" from="S" to="C" numLanes="2" />
    <edge id="E2C" from="E" to="C" numLanes="2" />
    <edge id="W2C" from="W" to="C" numLanes="2" />

    <!-- Outgoing roads (e.g., from Center 'C' to North 'N') -->
    <edge id="C2N" from="C" to="N" numLanes="2" />
    <edge id="C2S" from="C" to="S" numLanes="2" />
    <edge id="C2E" from="C" to="E" numLanes="2" />
    <edge id="C2W" from="C" to="W" numLanes="2" />
</edges>
