<!-- 'alias _1'   :  'cross_junction-1-2lane-project'-->
<nodes> 
	<node id="C" x="0"    y="0"    type="traffic_light" />

	<node id="N" x="0"    y="250"  type="priority" />
	<node id="S" x="0"    y="-250" type="priority" />
	<node id="E" x="-250" y="0"    type="priority" />
	<node id="W" x=" 250" y="0"    type="priority" /></nodes>
