<?xml version="1.0" encoding="UTF-8"?>

<!-- generated on 2025-11-23 18:35:27 by Eclipse SUMO netedit Version 1.24.0
<neteditConfiguration xmlns:xsi="http://www.w3.org/2001/XMLSchema-instance" xsi:noNamespaceSchemaLocation="http://sumo.dlr.de/xsd/neteditConfiguration.xsd">

    <input>
        <sumo-net-file value="/home/piyush/ject_sec/cross-1-2lane/_1.net.xml"/>
    </input>

    <output>
        <output-file value="/home/piyush/ject_sec/cross-1-2lane/_1.net.xml"/>
    </output>

    <processing>
        <geometry.min-radius.fix.railways value="false"/>
        <geometry.avoid-overlap value="false"/>
        <geometry.max-grade.fix value="false"/>
        <offset.disable-normalization value="true"/>
        <lefthand value="1"/>
    </processing>

    <junctions>
        <no-turnarounds value="true"/>
        <junctions.corner-detail value="5"/>
        <junctions.limit-turn-speed value="5.50"/>
        <rectangular-lane-cut value="0"/>
    </junctions>

    <pedestrian>
        <walkingareas value="0"/>
    </pedestrian>

</neteditConfiguration>
-->

<net version="1.20" junctionCornerDetail="5" lefthand="true" limitTurnSpeed="5.50" avoidOverlap="0" xmlns:xsi="http://www.w3.org/2001/XMLSchema-instance" xsi:noNamespaceSchemaLocation="http://sumo.dlr.de/xsd/net_file.xsd">

    <location netOffset="250.00,250.00" convBoundary="0.00,0.00,500.00,500.00" origBoundary="-250.00,-250.00,250.00,250.00" projParameter="!"/>

    <edge id=":C_0" function="internal">
        <lane id=":C_0_0" index="0" speed="6.51" length="9.03" shape="245.20,239.60 244.85,242.05 243.80,243.80 242.05,244.85 239.60,245.20"/>
    </edge>
    <edge id=":C_1" function="internal">
        <lane id=":C_1_0" index="0" speed="13.89" length="20.80" shape="245.20,239.60 245.20,260.40"/>
        <lane id=":C_1_1" index="1" speed="13.89" length="20.80" shape="248.40,239.60 248.40,260.40"/>
    </edge>
    <edge id=":C_3" function="internal">
        <lane id=":C_3_0" index="0" speed="9.26" length="19.35" shape="248.40,239.60 249.15,244.85 251.40,248.60 255.15,250.85 260.40,251.60"/>
    </edge>
    <edge id=":C_4" function="internal">
        <lane id=":C_4_0" index="0" speed="3.65" length="1.44" shape="248.40,239.60 249.20,240.80"/>
    </edge>
    <edge id=":C_20" function="internal">
        <lane id=":C_20_0" index="0" speed="3.65" length="3.23" shape="249.20,240.80 250.00,241.20 250.80,240.80 251.60,239.60"/>
    </edge>
    <edge id=":C_5" function="internal">
        <lane id=":C_5_0" index="0" speed="6.51" length="9.03" shape="260.40,245.20 257.95,244.85 256.20,243.80 255.15,242.05 254.80,239.60"/>
    </edge>
    <edge id=":C_6" function="internal">
        <lane id=":C_6_0" index="0" speed="13.89" length="20.80" shape="260.40,245.20 239.60,245.20"/>
        <lane id=":C_6_1" index="1" speed="13.89" length="20.80" shape="260.40,248.40 239.60,248.40"/>
    </edge>
    <edge id=":C_8" function="internal">
        <lane id=":C_8_0" index="0" speed="9.26" length="19.35" shape="260.40,248.40 255.15,249.15 251.40,251.40 249.15,255.15 248.40,260.40"/>
    </edge>
    <edge id=":C_9" function="internal">
        <lane id=":C_9_0" index="0" speed="3.65" length="1.44" shape="260.40,248.40 259.20,249.20"/>
    </edge>
    <edge id=":C_21" function="internal">
        <lane id=":C_21_0" index="0" speed="3.65" length="3.23" shape="259.20,249.20 258.80,250.00 259.20,250.80 260.40,251.60"/>
    </edge>
    <edge id=":C_10" function="internal">
        <lane id=":C_10_0" index="0" speed="6.51" length="9.03" shape="254.80,260.40 255.15,257.95 256.20,256.20 257.95,255.15 260.40,254.80"/>
    </edge>
    <edge id=":C_11" function="internal">
        <lane id=":C_11_0" index="0" speed="13.89" length="20.80" shape="254.80,260.40 254.80,239.60"/>
        <lane id=":C_11_1" index="1" speed="13.89" length="20.80" shape="251.60,260.40 251.60,239.60"/>
    </edge>
    <edge id=":C_13" function="internal">
        <lane id=":C_13_0" index="0" speed="9.26" length="19.35" shape="251.60,260.40 250.85,255.15 248.60,251.40 244.85,249.15 239.60,248.40"/>
    </edge>
    <edge id=":C_14" function="internal">
        <lane id=":C_14_0" index="0" speed="3.65" length="1.44" shape="251.60,260.40 250.80,259.20"/>
    </edge>
    <edge id=":C_22" function="internal">
        <lane id=":C_22_0" index="0" speed="3.65" length="3.23" shape="250.80,259.20 250.00,258.80 249.20,259.20 248.40,260.40"/>
    </edge>
    <edge id=":C_15" function="internal">
        <lane id=":C_15_0" index="0" speed="6.51" length="9.03" shape="239.60,254.80 242.05,255.15 243.80,256.20 244.85,257.95 245.20,260.40"/>
    </edge>
    <edge id=":C_16" function="internal">
        <lane id=":C_16_0" index="0" speed="13.89" length="20.80" shape="239.60,254.80 260.40,254.80"/>
        <lane id=":C_16_1" index="1" speed="13.89" length="20.80" shape="239.60,251.60 260.40,251.60"/>
    </edge>
    <edge id=":C_18" function="internal">
        <lane id=":C_18_0" index="0" speed="9.26" length="19.35" shape="239.60,251.60 244.85,250.85 248.60,248.60 250.85,244.85 251.60,239.60"/>
    </edge>
    <edge id=":C_19" function="internal">
        <lane id=":C_19_0" index="0" speed="3.65" length="1.44" shape="239.60,251.60 240.80,250.80"/>
    </edge>
    <edge id=":C_23" function="internal">
        <lane id=":C_23_0" index="0" speed="3.65" length="3.23" shape="240.80,250.80 241.20,250.00 240.80,249.20 239.60,248.40"/>
    </edge>
    <edge id=":E_0" function="internal">
        <lane id=":E_0_0" index="0" speed="3.65" length="4.67" shape="0.00,248.40 -1.20,249.20 -1.60,250.00 -1.20,250.80 0.00,251.60"/>
    </edge>
    <edge id=":N_0" function="internal">
        <lane id=":N_0_0" index="0" speed="3.65" length="4.67" shape="248.40,500.00 249.20,501.20 250.00,501.60 250.80,501.20 251.60,500.00"/>
    </edge>
    <edge id=":S_0" function="internal">
        <lane id=":S_0_0" index="0" speed="3.65" length="4.67" shape="251.60,-0.00 250.80,-1.20 250.00,-1.60 249.20,-1.20 248.40,-0.00"/>
    </edge>
    <edge id=":W_0" function="internal">
        <lane id=":W_0_0" index="0" speed="3.65" length="4.67" shape="500.00,251.60 501.20,250.80 501.60,250.00 501.20,249.20 500.00,248.40"/>
    </edge>

    <edge id="C2E" from="C" to="E" priority="-1">
        <lane id="C2E_0" index="0" speed="13.89" length="239.60" shape="239.60,245.20 0.00,245.20"/>
        <lane id="C2E_1" index="1" speed="13.89" length="239.60" shape="239.60,248.40 0.00,248.40"/>
    </edge>
    <edge id="C2N" from="C" to="N" priority="-1">
        <lane id="C2N_0" index="0" speed="13.89" length="239.60" shape="245.20,260.40 245.20,500.00"/>
        <lane id="C2N_1" index="1" speed="13.89" length="239.60" shape="248.40,260.40 248.40,500.00"/>
    </edge>
    <edge id="C2S" from="C" to="S" priority="-1">
        <lane id="C2S_0" index="0" speed="13.89" length="239.60" shape="254.80,239.60 254.80,0.00"/>
        <lane id="C2S_1" index="1" speed="13.89" length="239.60" shape="251.60,239.60 251.60,0.00"/>
    </edge>
    <edge id="C2W" from="C" to="W" priority="-1">
        <lane id="C2W_0" index="0" speed="13.89" length="239.60" shape="260.40,254.80 500.00,254.80"/>
        <lane id="C2W_1" index="1" speed="13.89" length="239.60" shape="260.40,251.60 500.00,251.60"/>
    </edge>
    <edge id="E2C" from="E" to="C" priority="-1">
        <lane id="E2C_0" index="0" speed="13.89" length="239.60" shape="0.00,254.80 239.60,254.80"/>
        <lane id="E2C_1" index="1" speed="13.89" length="239.60" shape="0.00,251.60 239.60,251.60"/>
    </edge>
    <edge id="N2C" from="N" to="C" priority="-1">
        <lane id="N2C_0" index="0" speed="13.89" length="239.60" shape="254.80,500.00 254.80,260.40"/>
        <lane id="N2C_1" index="1" speed="13.89" length="239.60" shape="251.60,500.00 251.60,260.40"/>
    </edge>
    <edge id="S2C" from="S" to="C" priority="-1">
        <lane id="S2C_0" index="0" speed="13.89" length="239.60" shape="245.20,0.00 245.20,239.60"/>
        <lane id="S2C_1" index="1" speed="13.89" length="239.60" shape="248.40,0.00 248.40,239.60"/>
    </edge>
    <edge id="W2C" from="W" to="C" priority="-1">
        <lane id="W2C_0" index="0" speed="13.89" length="239.60" shape="500.00,245.20 260.40,245.20"/>
        <lane id="W2C_1" index="1" speed="13.89" length="239.60" shape="500.00,248.40 260.40,248.40"/>
    </edge>

    <tlLogic id="C" type="actuated" programID="1" offset="0">
        <phase duration="52" state="gGrrrrgGrrrr" minDur="5" maxDur="50"/>
        <phase duration="2"  state="yyyrrryyyrrr"/>
        <phase duration="52" state="rrrgGrrrrgGr" minDur="5" maxDur="50"/>
        <phase duration="2"  state="rrryyyrrryyy"/>
        <phase duration="52" state="rrrgrGrrrgrG" minDur="5" maxDur="50"/>
        <phase duration="2"  state="rrryyyrrryyy"/>
        <phase duration="52" state="grGrrrgrGrrr" minDur="5" maxDur="50"/>
        <phase duration="2"  state="rrryyyrrryyy"/>
    </tlLogic>

    <junction id="C" type="traffic_light" x="250.00" y="250.00" incLanes="S2C_0 S2C_1 W2C_0 W2C_1 N2C_0 N2C_1 E2C_0 E2C_1" intLanes=":C_0_0 :C_1_0 :C_1_1 :C_3_0 :C_20_0 :C_5_0 :C_6_0 :C_6_1 :C_8_0 :C_21_0 :C_10_0 :C_11_0 :C_11_1 :C_13_0 :C_22_0 :C_15_0 :C_16_0 :C_16_1 :C_18_0 :C_23_0" shape="243.60,239.60 256.40,239.60 256.84,241.82 257.40,242.60 258.18,243.16 259.18,243.49 260.40,243.60 260.40,256.40 258.18,256.84 257.40,257.40 256.84,258.18 256.51,259.18 256.40,260.40 243.60,260.40 243.16,258.18 242.60,257.40 241.82,256.84 240.82,256.51 239.60,256.40 239.60,243.60 241.82,243.16 242.60,242.60 243.16,241.82 243.49,240.82">
        <request index="0"  response="00000010000000000000" foes="00000000000011000000" cont="0"/>
        <request index="1"  response="00000000000000000000" foes="01111110000111000000" cont="0"/>
        <request index="2"  response="00000000000000000000" foes="01111110000111000000" cont="0"/>
        <request index="3"  response="00000001100000000000" foes="01110001101111000000" cont="0"/>
        <request index="4"  response="01000001100000000000" foes="01000001100000000000" cont="1"/>
        <request index="5"  response="01000001100000000000" foes="00000001100000000000" cont="0"/>
        <request index="6"  response="00000011100000001111" foes="11000011100000001111" cont="0"/>
        <request index="7"  response="00000011100000001111" foes="11000011100000001111" cont="0"/>
        <request index="8"  response="00110011100000001110" foes="00110111100000001110" cont="0"/>
        <request index="9"  response="00110000000000001000" foes="00110000000000001000" cont="1"/>
        <request index="10" response="00000000000000001000" foes="00110000000000000000" cont="0"/>
        <request index="11" response="00000000000000000000" foes="01110000000111111000" cont="0"/>
        <request index="12" response="00000000000000000000" foes="01110000000111111000" cont="0"/>
        <request index="13" response="00000000000000000110" foes="11110000000111000110" cont="0"/>
        <request index="14" response="00000000000100000110" foes="00000000000100000110" cont="1"/>
        <request index="15" response="00000000000100000110" foes="00000000000000000110" cont="0"/>
        <request index="16" response="00000011110000001110" foes="00000011111100001110" cont="0"/>
        <request index="17" response="00000011110000001110" foes="00000011111100001110" cont="0"/>
        <request index="18" response="00000011100011001110" foes="00000011100011011110" cont="0"/>
        <request index="19" response="00000010000011000000" foes="00000010000011000000" cont="1"/>
    </junction>
    <junction id="E" type="priority" x="0.00" y="250.00" incLanes="C2E_0 C2E_1" intLanes=":E_0_0" shape="0.00,250.00 0.00,243.60 0.00,250.00">
        <request index="0" response="0" foes="0" cont="0"/>
    </junction>
    <junction id="N" type="priority" x="250.00" y="500.00" incLanes="C2N_0 C2N_1" intLanes=":N_0_0" shape="250.00,500.00 243.60,500.00 250.00,500.00">
        <request index="0" response="0" foes="0" cont="0"/>
    </junction>
    <junction id="S" type="priority" x="250.00" y="0.00" incLanes="C2S_0 C2S_1" intLanes=":S_0_0" shape="250.00,-0.00 256.40,-0.00 250.00,-0.00">
        <request index="0" response="0" foes="0" cont="0"/>
    </junction>
    <junction id="W" type="priority" x="500.00" y="250.00" incLanes="C2W_0 C2W_1" intLanes=":W_0_0" shape="500.00,250.00 500.00,256.40 500.00,250.00">
        <request index="0" response="0" foes="0" cont="0"/>
    </junction>

    <junction id=":C_20_0" type="internal" x="249.20" y="240.80" incLanes=":C_4_0 E2C_1 N2C_0 N2C_1 W2C_0" intLanes=":C_5_0 :C_11_0 :C_11_1 :C_18_0"/>
    <junction id=":C_21_0" type="internal" x="259.20" y="249.20" incLanes=":C_9_0 E2C_0 E2C_1 N2C_0 S2C_1" intLanes=":C_3_0 :C_10_0 :C_16_0 :C_16_1"/>
    <junction id=":C_22_0" type="internal" x="250.80" y="259.20" incLanes=":C_14_0 E2C_0 S2C_0 S2C_1 W2C_1" intLanes=":C_1_0 :C_1_1 :C_8_0 :C_15_0"/>
    <junction id=":C_23_0" type="internal" x="240.80" y="250.80" incLanes=":C_19_0 N2C_1 S2C_0 W2C_0 W2C_1" intLanes=":C_0_0 :C_6_0 :C_6_1 :C_13_0"/>

    <connection from="C2E" to="E2C" fromLane="1" toLane="1" via=":E_0_0" dir="T" state="M"/>
    <connection from="C2N" to="N2C" fromLane="1" toLane="1" via=":N_0_0" dir="T" state="M"/>
    <connection from="C2S" to="S2C" fromLane="1" toLane="1" via=":S_0_0" dir="T" state="M"/>
    <connection from="C2W" to="W2C" fromLane="1" toLane="1" via=":W_0_0" dir="T" state="M"/>
    <connection from="E2C" to="C2N" fromLane="0" toLane="0" via=":C_15_0" tl="C" linkIndex="9" dir="l" state="o"/>
    <connection from="E2C" to="C2W" fromLane="0" toLane="0" via=":C_16_0" tl="C" linkIndex="10" dir="s" state="o"/>
    <connection from="E2C" to="C2W" fromLane="1" toLane="1" via=":C_16_1" tl="C" linkIndex="10" dir="s" state="o"/>
    <connection from="E2C" to="C2S" fromLane="1" toLane="1" via=":C_18_0" tl="C" linkIndex="11" dir="r" state="o"/>
    <connection from="E2C" to="C2E" fromLane="1" toLane="1" via=":C_19_0" tl="C" linkIndex="9" dir="T" state="o"/>
    <connection from="N2C" to="C2W" fromLane="0" toLane="0" via=":C_10_0" tl="C" linkIndex="6" dir="l" state="O"/>
    <connection from="N2C" to="C2S" fromLane="0" toLane="0" via=":C_11_0" tl="C" linkIndex="7" dir="s" state="O"/>
    <connection from="N2C" to="C2S" fromLane="1" toLane="1" via=":C_11_1" tl="C" linkIndex="7" dir="s" state="O"/>
    <connection from="N2C" to="C2E" fromLane="1" toLane="1" via=":C_13_0" tl="C" linkIndex="8" dir="r" state="o"/>
    <connection from="N2C" to="C2N" fromLane="1" toLane="1" via=":C_14_0" tl="C" linkIndex="6" dir="T" state="o"/>
    <connection from="S2C" to="C2E" fromLane="0" toLane="0" via=":C_0_0" tl="C" linkIndex="0" dir="l" state="O"/>
    <connection from="S2C" to="C2N" fromLane="0" toLane="0" via=":C_1_0" tl="C" linkIndex="1" dir="s" state="O"/>
    <connection from="S2C" to="C2N" fromLane="1" toLane="1" via=":C_1_1" tl="C" linkIndex="1" dir="s" state="O"/>
    <connection from="S2C" to="C2W" fromLane="1" toLane="1" via=":C_3_0" tl="C" linkIndex="2" dir="r" state="o"/>
    <connection from="S2C" to="C2S" fromLane="1" toLane="1" via=":C_4_0" tl="C" linkIndex="0" dir="T" state="o"/>
    <connection from="W2C" to="C2S" fromLane="0" toLane="0" via=":C_5_0" tl="C" linkIndex="3" dir="l" state="o"/>
    <connection from="W2C" to="C2E" fromLane="0" toLane="0" via=":C_6_0" tl="C" linkIndex="4" dir="s" state="o"/>
    <connection from="W2C" to="C2E" fromLane="1" toLane="1" via=":C_6_1" tl="C" linkIndex="4" dir="s" state="o"/>
    <connection from="W2C" to="C2N" fromLane="1" toLane="1" via=":C_8_0" tl="C" linkIndex="5" dir="r" state="o"/>
    <connection from="W2C" to="C2W" fromLane="1" toLane="1" via=":C_9_0" tl="C" linkIndex="3" dir="T" state="o"/>

    <connection from=":C_0" to="C2E" fromLane="0" toLane="0" dir="l" state="M"/>
    <connection from=":C_1" to="C2N" fromLane="0" toLane="0" dir="s" state="M"/>
    <connection from=":C_1" to="C2N" fromLane="1" toLane="1" dir="s" state="M"/>
    <connection from=":C_3" to="C2W" fromLane="0" toLane="1" dir="r" state="M"/>
    <connection from=":C_4" to="C2S" fromLane="0" toLane="1" via=":C_20_0" dir="T" state="m"/>
    <connection from=":C_20" to="C2S" fromLane="0" toLane="1" dir="T" state="M"/>
    <connection from=":C_5" to="C2S" fromLane="0" toLane="0" dir="l" state="M"/>
    <connection from=":C_6" to="C2E" fromLane="0" toLane="0" dir="s" state="M"/>
    <connection from=":C_6" to="C2E" fromLane="1" toLane="1" dir="s" state="M"/>
    <connection from=":C_8" to="C2N" fromLane="0" toLane="1" dir="r" state="M"/>
    <connection from=":C_9" to="C2W" fromLane="0" toLane="1" via=":C_21_0" dir="T" state="m"/>
    <connection from=":C_21" to="C2W" fromLane="0" toLane="1" dir="T" state="M"/>
    <connection from=":C_10" to="C2W" fromLane="0" toLane="0" dir="l" state="M"/>
    <connection from=":C_11" to="C2S" fromLane="0" toLane="0" dir="s" state="M"/>
    <connection from=":C_11" to="C2S" fromLane="1" toLane="1" dir="s" state="M"/>
    <connection from=":C_13" to="C2E" fromLane="0" toLane="1" dir="r" state="M"/>
    <connection from=":C_14" to="C2N" fromLane="0" toLane="1" via=":C_22_0" dir="T" state="m"/>
    <connection from=":C_22" to="C2N" fromLane="0" toLane="1" dir="T" state="M"/>
    <connection from=":C_15" to="C2N" fromLane="0" toLane="0" dir="l" state="M"/>
    <connection from=":C_16" to="C2W" fromLane="0" toLane="0" dir="s" state="M"/>
    <connection from=":C_16" to="C2W" fromLane="1" toLane="1" dir="s" state="M"/>
    <connection from=":C_18" to="C2S" fromLane="0" toLane="1" dir="r" state="M"/>
    <connection from=":C_19" to="C2E" fromLane="0" toLane="1" via=":C_23_0" dir="T" state="m"/>
    <connection from=":C_23" to="C2E" fromLane="0" toLane="1" dir="T" state="M"/>
    <connection from=":E_0" to="E2C" fromLane="0" toLane="1" dir="T" state="M"/>
    <connection from=":N_0" to="N2C" fromLane="0" toLane="1" dir="T" state="M"/>
    <connection from=":S_0" to="S2C" fromLane="0" toLane="1" dir="T" state="M"/>
    <connection from=":W_0" to="W2C" fromLane="0" toLane="1" dir="T" state="M"/>

</net>
